*Heading
** Job name: ABAQUS Model name: ABAQUS
** Generated by: Abaqus/CAE 6.14-1
*Preprint, echo=NO, model=NO, history=NO, contact=NO
**
** PARTS
**
*Part, name=Part-1
*Node
      1,          80.,   23.6853333,           0.
      2,   47.7400284,   22.0228577,           0.
      3,   46.4000015,   24.7999992,           0.
      4,   38.8793945,   27.9211254,           0.
      5,   38.3754005,          40.,           0.
      6,          80.,          40.,           0.
      7,          80.,           0.,           0.
      8,   39.8773155,           0.,           0.
      9,   39.7140465,   12.0051126,           0.
     10,   32.0006065,   19.9016151,           0.
     11,           0.,   19.9909916,           0.
     12,           0.,          40.,           0.
     13,           0.,           0.,           0.
     14,          80.,   35.9201584,           0.
     15,          80.,   31.8313446,           0.
     16,          80.,   27.7491016,           0.
     17,   76.4568558,   23.6223259,           0.
     18,   72.9819641,   23.4854126,           0.
     19,     69.70121,   23.2378063,           0.
     20,   66.0637436,   23.1353455,           0.
** ... 960 like lines cut
*Element, type=C3D8R
  1, 107,  17,   1,  16, 352, 262, 246, 261
  2, 106,  18,  17, 107, 351, 263, 262, 352
  3, 105,  19,  18, 106, 350, 264, 263, 351
  4, 104,  20,  19, 105, 349, 265, 264, 350
  5, 103,  21,  20, 104, 348, 266, 265, 349
  6, 102,  22,  21, 103, 347, 267, 266, 348
  7, 101,  23,  22, 102, 346, 268, 267, 347
  8, 100,  24,  23, 101, 345, 269, 268, 346
  9,  99,  25,  24, 100, 344, 270, 269, 345
 10,  99,   3,   2,  25, 344, 248, 247, 270
 11,  99, 108,  26,   3, 344, 353, 271, 248
 12, 108,  27,   4,  26, 353, 272, 249, 271
 13, 108, 111,  28,  27, 353, 356, 273, 272
 14, 111, 112,  29,  28, 356, 357, 274, 273
 15, 112,  30,   5,  29, 357, 275, 250, 274
 16,  99, 110, 111, 108, 344, 355, 356, 353
 17, 110, 109, 112, 111, 355, 354, 357, 356
 18, 109,  31,  30, 112, 354, 276, 275, 357
 19, 109, 113,  32,  31, 354, 358, 277, 276
 20, 113, 114,  33,  32, 358, 359, 278, 277
** ... 604 like lines cut
*Nset, nset=Set-1, generate
   1,  980,    1
*Elset, elset=Set-1, generate
   1,  624,    1
** Section: Section-1
*Solid Section, elset=Set-1, material=STEEL
,
*End Part
**  
**
** ASSEMBLY
**
*Assembly, name=Assembly
**  
*Instance, name=Part-1-1, part=Part-1
*End Instance
**  
*Nset, nset=Set-1, instance=Part-1-1
  11,  12,  13,  80,  81,  82,  83,  95,  96,  97,  98, 256, 257, 258, 325, 326
 327, 328, 340, 341, 342, 343, 501, 502, 503, 570, 571, 572, 573, 585, 586, 587
 588, 746, 747, 748, 815, 816, 817, 818, 830, 831, 832, 833
*Elset, elset=Set-1, instance=Part-1-1
 121, 130, 131, 132, 133, 170, 179, 188, 189, 190, 329, 338, 339, 340, 341, 378
 387, 396, 397, 398, 537, 546, 547, 548, 549, 586, 595, 604, 605, 606
*Nset, nset=Set-2, instance=Part-1-1
   1,   6,   7,  14,  15,  16,  43,  44,  45,  46,  47, 246, 251, 252, 259, 260
 261, 288, 289, 290, 291, 292, 491, 496, 497, 504, 505, 506, 533, 534, 535, 536
 537, 736, 741, 742, 749, 750, 751, 778, 779, 780, 781, 782
*Elset, elset=Set-2, instance=Part-1-1
   1,  27,  36,  45,  57,  66,  75,  76,  77,  78, 209, 235, 244, 253, 265, 274
 283, 284, 285, 286, 417, 443, 452, 461, 473, 482, 491, 492, 493, 494
*End Assembly
*Amplitude, name=Amp-1
             0.,              0.,             0.1,              1.
** 
** MATERIALS
** 
*Material, name=STEEL
*Density
 7.8e-09,
*Elastic
210000., 0.3
*Fail Stress
0., 0., 0., 0., 0., 0.,45.
** ----------------------------------------------------------------
** 
** STEP: Step-1
** 
*Step, name=Step-1, nlgeom=YES
*Dynamic, Explicit
, 0.1
*Bulk Viscosity
0.06, 1.2
** 
** BOUNDARY CONDITIONS
** 
** Name: BC-1 Type: Symmetry/Antisymmetry/Encastre
*Boundary
Set-1, ENCASTRE
** Name: BC-2 Type: Displacement/Rotation
*Boundary, amplitude=Amp-1
Set-2, 1, 1, 0.5
** 
** OUTPUT REQUESTS
** 
*Restart, write, number interval=1, time marks=NO
** 
** FIELD OUTPUT: F-Output-1
** 
*Output, field
*Node Output
A, RF, U, V
*Element Output, directions=YES
EVF, LE, PE, PEEQ, PEEQVAVG, PEVAVG, S, STATUS, SVAVG
*Contact Output
CSTRESS, 
** 
** HISTORY OUTPUT: H-Output-1
** 
*Output, history, variable=PRESELECT
*End Step
