*Heading
** Job name: ABAQUS Model name: ABAQUS
** Generated by: Abaqus/CAE 2022
*Preprint, echo=NO, model=NO, history=NO, contact=NO
**
** PARTS
**
*Part, name=Beam
*Node
      1,          50.,          50.,         600.
      2,          50.,          40.,         600.
      3,          50.,          30.,         600.
      4,          50.,          20.,         600.
      5,          50.,          10.,         600.
      6,          50.,           0.,         600.
      7,          50.,          50.,         590.
      8,          50.,          40.,         590.
      9,          50.,          30.,         590.
     10,          50.,          20.,         590.
     11,          50.,          10.,         590.
     12,          50.,           0.,         590.
     13,          50.,          50.,         580.
     14,          50.,          40.,         580.
     15,          50.,          30.,         580.
     16,          50.,          20.,         580.
     17,          50.,          10.,         580.
     18,          50.,           0.,         580.
     19,          50.,          50.,         570.
     20,          50.,          40.,         570.
** ... 2176 like lines cut
*Element, type=C3D8
   1,  367,  368,  374,  373,    1,    2,    8,    7
   2,  368,  369,  375,  374,    2,    3,    9,    8
   3,  369,  370,  376,  375,    3,    4,   10,    9
   4,  370,  371,  377,  376,    4,    5,   11,   10
   5,  371,  372,  378,  377,    5,    6,   12,   11
   6,  373,  374,  380,  379,    7,    8,   14,   13
   7,  374,  375,  381,  380,    8,    9,   15,   14
   8,  375,  376,  382,  381,    9,   10,   16,   15
   9,  376,  377,  383,  382,   10,   11,   17,   16
  10,  377,  378,  384,  383,   11,   12,   18,   17
  11,  379,  380,  386,  385,   13,   14,   20,   19
  12,  380,  381,  387,  386,   14,   15,   21,   20
  13,  381,  382,  388,  387,   15,   16,   22,   21
  14,  382,  383,  389,  388,   16,   17,   23,   22
  15,  383,  384,  390,  389,   17,   18,   24,   23
  16,  385,  386,  392,  391,   19,   20,   26,   25
  17,  386,  387,  393,  392,   20,   21,   27,   26
  18,  387,  388,  394,  393,   21,   22,   28,   27
  19,  388,  389,  395,  394,   22,   23,   29,   28
  20,  389,  390,  396,  395,   23,   24,   30,   29
** ... 1480 like lines cut
*Nset, nset=Set-1, generate
    1,  2196,     1
*Elset, elset=Set-1, generate
    1,  1500,     1
** Section: Section-1
*Solid Section, elset=Set-1, material=Steel
,
*End Part
**  
**
** ASSEMBLY
**
*Assembly, name=Assembly
**  
*Instance, name=Beam-1, part=Beam
*End Instance
**  
*Nset, nset=Set-1, instance=Beam-1
  361,  362,  363,  364,  365,  366,  727,  728,  729,  730,  731,  732, 1093, 1094, 1095, 1096
 1097, 1098, 1459, 1460, 1461, 1462, 1463, 1464, 1825, 1826, 1827, 1828, 1829, 1830, 2191, 2192
 2193, 2194, 2195, 2196
*Elset, elset=Set-1, instance=Beam-1
  296,  297,  298,  299,  300,  596,  597,  598,  599,  600,  896,  897,  898,  899,  900, 1196
 1197, 1198, 1199, 1200, 1496, 1497, 1498, 1499, 1500
*Nset, nset=Set-2, instance=Beam-1
    1,    2,    3,    4,    5,    6,  367,  368,  369,  370,  371,  372,  733,  734,  735,  736
  737,  738, 1099, 1100, 1101, 1102, 1103, 1104, 1465, 1466, 1467, 1468, 1469, 1470, 1831, 1832
 1833, 1834, 1835, 1836
*Elset, elset=Set-2, instance=Beam-1
    1,    2,    3,    4,    5,  301,  302,  303,  304,  305,  601,  602,  603,  604,  605,  901
  902,  903,  904,  905, 1201, 1202, 1203, 1204, 1205
*End Assembly
** 
** MATERIALS
** 
*Material, name=Steel
*Elastic
210000., 0.3
** ----------------------------------------------------------------
** 
** STEP: Step-1
** 
*Step, name=Step-1, nlgeom=NO
*Static
1., 1., 1e-05, 1.
** 
** BOUNDARY CONDITIONS
** 
** Name: BC-1 Type: Displacement/Rotation
*Boundary
Set-1, 1, 1
Set-1, 2, 2
Set-1, 3, 3
Set-1, 4, 4
Set-1, 5, 5
Set-1, 6, 6
** Name: BC-2 Type: Displacement/Rotation
*Boundary
Set-2, 3, 3, 5.
** 
** OUTPUT REQUESTS
** 
*Restart, write, frequency=0
** 
** FIELD OUTPUT: F-Output-1
** 
*Output, field, variable=PRESELECT
** 
** HISTORY OUTPUT: H-Output-1
** 
*Output, history, variable=PRESELECT
*End Step
