*Heading
** Job name: Job-4 Model name: Subroutine-High
** Generated by: Abaqus/CAE 6.12-1
*Preprint, echo=NO, model=NO, history=NO, contact=NO
**
** PARTS
**
*Part, name=Model
*Node
      1,        63.75,        81.25
      2,        53.75,        81.25
      3,        43.75,        81.25
      4,        33.75,        81.25
      5,        23.75,        81.25
      6,        13.75,        81.25
      7,         3.75,        81.25
      8,        -6.25,        81.25
      9,       -16.25,        81.25
     10,       -26.25,        81.25
     11,       -36.25,        81.25
     12,        63.75,        71.25
     13,        53.75,        71.25
     14,        43.75,        71.25
     15,        33.75,        71.25
     16,        23.75,        71.25
     17,        13.75,        71.25
     18,         3.75,        71.25
     19,        -6.25,        71.25
     20,       -16.25,        71.25
** ... 101 like lines cut
*Element, type=CPE4R
  1,   1,   2,  13,  12
  2,   2,   3,  14,  13
  3,   3,   4,  15,  14
  4,   4,   5,  16,  15
  5,   5,   6,  17,  16
  6,   6,   7,  18,  17
  7,   7,   8,  19,  18
  8,   8,   9,  20,  19
  9,   9,  10,  21,  20
 10,  10,  11,  22,  21
 11,  12,  13,  24,  23
 12,  13,  14,  25,  24
 13,  14,  15,  26,  25
 14,  15,  16,  27,  26
 15,  16,  17,  28,  27
 16,  17,  18,  29,  28
 17,  18,  19,  30,  29
 18,  19,  20,  31,  30
 19,  20,  21,  32,  31
 20,  21,  22,  33,  32
** ... 80 like lines cut
*Nset, nset=Set-1, generate
   1,  121,    1
*Elset, elset=Set-1, generate
   1,  100,    1
** Section: Section-2
*Solid Section, elset=Set-1, material=Material-1
2000.,
*End Part
**  
**
** ASSEMBLY
**
*Assembly, name=Assembly
**  
*Instance, name=Model-1, part=Model
*End Instance
**  
*Nset, nset=Set-7, instance=Model-1, generate
  11,  121,   11
*Elset, elset=Set-7, instance=Model-1, generate
  10,  100,   10
*Nset, nset=Set-8, instance=Model-1, generate
   1,  111,   11
*Elset, elset=Set-8, instance=Model-1, generate
  1,  91,  10
*Nset, nset=Set-9, instance=Model-1
 121,
*End Assembly
*Amplitude, name=Amp-1, definition=SMOOTH STEP
             0.,              0.,             0.1,              1.
** 
** MATERIALS
** 
*Material, name=Material-1
*Density
 7.8e-09,
*Depvar
      1,
*User Material, constants=6
200000., 0.3,350.,  0.,370., 0.1
** 
** BOUNDARY CONDITIONS
** 
** Name: BC-1 Type: Symmetry/Antisymmetry/Encastre
*Boundary
Set-7, XSYMM
** Name: BC-3 Type: Symmetry/Antisymmetry/Encastre
*Boundary
Set-9, ENCASTRE
** ----------------------------------------------------------------
** 
** STEP: Step-1
** 
*Step, name=Step-1, nlgeom=NO
*Dynamic, Explicit
, 0.1
*Bulk Viscosity
0.06, 1.2
** 
** BOUNDARY CONDITIONS
** 
** Name: BC-2 Type: Displacement/Rotation
*Boundary, amplitude=Amp-1
Set-8, 1, 1, 4.
Set-8, 3, 3, -4.
** 
** OUTPUT REQUESTS
** 
*Restart, write, number interval=1, time marks=NO
** 
** FIELD OUTPUT: F-Output-1
** 
*Output, field, number interval=50, time marks=YES
*Node Output
CF, RF, U
*Element Output, directions=YES
LE, PE, PEEQ, PEMAG, S, SDV, TEMP
*Contact Output
CSTRESS, 
** 
** HISTORY OUTPUT: H-Output-1
** 
*Output, history, variable=PRESELECT, frequency=1
*End Step
