*Heading
** Job name: ABAQUS Model name: ABAQUS
** Generated by: Abaqus/CAE 2022
*Preprint, echo=NO, model=NO, history=NO, contact=NO
**
** PARTS
**
*Part, name=LAMINA
*Node
      1,           0.,           0.,           0.
      2,           2.,           0.,           0.
      3,           4.,           0.,           0.
      4,           6.,           0.,           0.
      5,           8.,           0.,           0.
      6,          10.,           0.,           0.
      7,          12.,           0.,           0.
      8,          14.,           0.,           0.
      9,          16.,           0.,           0.
     10,          18.,           0.,           0.
     11,          20.,           0.,           0.
     12,          22.,           0.,           0.
     13,          24.,           0.,           0.
     14,          26.,           0.,           0.
     15,          28.,           0.,           0.
     16,          30.,           0.,           0.
     17,          32.,           0.,           0.
     18,          34.,           0.,           0.
     19,          36.,           0.,           0.
     20,          38.,           0.,           0.
** ... 656 like lines cut
*Element, type=S4
  1,   1,   2,  28,  27
  2,   2,   3,  29,  28
  3,   3,   4,  30,  29
  4,   4,   5,  31,  30
  5,   5,   6,  32,  31
  6,   6,   7,  33,  32
  7,   7,   8,  34,  33
  8,   8,   9,  35,  34
  9,   9,  10,  36,  35
 10,  10,  11,  37,  36
 11,  11,  12,  38,  37
 12,  12,  13,  39,  38
 13,  13,  14,  40,  39
 14,  14,  15,  41,  40
 15,  15,  16,  42,  41
 16,  16,  17,  43,  42
 17,  17,  18,  44,  43
 18,  18,  19,  45,  44
 19,  19,  20,  46,  45
 20,  20,  21,  47,  46
** ... 605 like lines cut
*Orientation, name=Ori-1
          1.,           0.,           0.,           0.,           1.,           0.
3, 0.
** Region: (CompositeLayup-1-1: Generated From Layup)
*Elset, elset=CompositeLayup-1-1, generate
   1,  625,    1
** Section: CompositeLayup-1-1
*Shell Section, elset=CompositeLayup-1-1, composite, orientation=Ori-1, layup=CompositeLayup-1
0.1, 3, COMPOSITE, 30., Ply-1
*Transverse Shear Stiffness
5100., 5100., 0.
*End Part
**  
**
** ASSEMBLY
**
*Assembly, name=Assembly
**  
*Instance, name=LAMINA-1, part=LAMINA
*End Instance
**  
*Nset, nset=Set-1, instance=LAMINA-1, generate
   1,  651,   26
*Elset, elset=Set-1, instance=LAMINA-1, generate
   1,  601,   25
*Nset, nset=Set-2, instance=LAMINA-1, generate
  26,  676,   26
*Elset, elset=Set-2, instance=LAMINA-1, generate
  25,  625,   25
*End Assembly
** 
** MATERIALS
** 
*Material, name=COMPOSITE
*Elastic, type=LAMINA
181000.,10300.,  0.28, 7170., 7170., 3812.
*Fail Stress
2507.,1200.,  86., 184., 146.,   0.,   0.
** ----------------------------------------------------------------
** 
** STEP: Step-1
** 
*Step, name=Step-1, nlgeom=NO
*Static
1., 1., 1e-05, 1.
** 
** BOUNDARY CONDITIONS
** 
** Name: BC-1 Type: Displacement/Rotation
*Boundary
Set-1, 1, 1
Set-1, 2, 2
Set-1, 3, 3
Set-1, 4, 4
Set-1, 5, 5
Set-1, 6, 6
** Name: BC-2 Type: Displacement/Rotation
*Boundary
Set-2, 1, 1, 5.
** 
** OUTPUT REQUESTS
** 
*Restart, write, frequency=0
** 
** FIELD OUTPUT: F-Output-1
** 
*Output, field
*Node Output
CF, RF, U
*Element Output, directions=YES
CFAILURE, LE, PE, PEEQ, PEMAG, S, SDV
*Contact Output
CDISP, CSTRESS
** 
** HISTORY OUTPUT: H-Output-1
** 
*Output, history, variable=PRESELECT
*End Step
