 Abaqus/Standard 2022                  DATE 14-Apr-2025 TIME 21:20:04
 SUMMARY OF JOB INFORMATION:
 STEP  INC ATT SEVERE EQUIL TOTAL  TOTAL      STEP       INC OF       DOF    IF
               DISCON ITERS ITERS  TIME/    TIME/LPF    TIME/LPF    MONITOR RIKS
               ITERS               FREQ
   1     1   1     0     1     1  0.0100     0.0100     0.01000   
   1     2   1     0     1     1  0.0200     0.0200     0.01000   
   1     3   1     0     1     1  0.0350     0.0350     0.01500   
   1     4   1     0     1     1  0.0575     0.0575     0.02250   
   1     5   1     0     1     1  0.0912     0.0912     0.03375   
   1     6   1     0     1     1  0.141      0.141      0.05000   
   1     7   1     0     1     1  0.191      0.191      0.05000   
   1     8   1     0     1     1  0.241      0.241      0.05000   
   1     9   1     0     1     1  0.291      0.291      0.05000   
   1    10   1     0     1     1  0.341      0.341      0.05000   
   1    11   1     0     1     1  0.391      0.391      0.05000   
   1    12   1     0     1     1  0.441      0.441      0.05000   
   1    13   1     0     1     1  0.491      0.491      0.05000   
   1    14   1     0     1     1  0.541      0.541      0.05000   
   1    15   1     0     1     1  0.591      0.591      0.05000   
   1    16   1     0     1     1  0.641      0.641      0.05000   
   1    17   1     0     1     1  0.691      0.691      0.05000   
   1    18   1     0     1     1  0.741      0.741      0.05000   
   1    19   1     0     1     1  0.791      0.791      0.05000   
   1    20   1     0     1     1  0.841      0.841      0.05000   
   1    21   1     0     1     1  0.891      0.891      0.05000   
   1    22   1     0     1     1  0.941      0.941      0.05000   
   1    23   1     0     1     1  0.991      0.991      0.05000   
   1    24   1     0     1     1  1.00       1.00       0.008750  
                          
 THE ANALYSIS HAS COMPLETED SUCCESSFULLY
